data_image0
_chemical_formula_structural       Co2Li2O4H12O2
_chemical_formula_sum              "Co2 Li2 O6 H12"
_cell_length_a       3.36773
_cell_length_b       2.97132
_cell_length_c       11.6392
_cell_angle_alpha    107.572
_cell_angle_beta     98.7026
_cell_angle_gamma    62.4138

_space_group_name_H-M_alt    "P 1"
_space_group_IT_number       1

loop_
  _space_group_symop_operation_xyz
  'x, y, z'

loop_
  _atom_site_type_symbol
  _atom_site_label
  _atom_site_symmetry_multiplicity
  _atom_site_fract_x
  _atom_site_fract_y
  _atom_site_fract_z
  _atom_site_occupancy
  Co  Co1       1.0  0.06609  0.72404  0.02866  1.0000
  Co  Co2       1.0  0.45246  0.04395  0.40935  1.0000
  Li  Li1       1.0  0.77725  0.36873  0.39961  1.0000
  Li  Li2       1.0  0.17711  0.79993  0.59918  1.0000
  O   O1        1.0  0.42023  0.77558  0.10267  1.0000
  O   O2        1.0  0.06684  0.74251  0.23206  1.0000
  O   O3        1.0  0.77427  0.43170  0.60888  1.0000
  O   O4        1.0  0.72107  0.09972  0.89652  1.0000
  H   H1        1.0  0.00493  0.01631  0.05580  1.0000
  H   H2        1.0  0.01052  0.02176  0.02652  1.0000
  H   H3        1.0  0.07735  0.05869  0.10280  1.0000
  H   H4        1.0  0.00743  0.00048  0.01140  1.0000
  H   H5        1.0  0.00001  0.00008  0.00001  1.0000
  H   H6        1.0  0.00007  0.00005  0.00198  1.0000
  H   H7        1.0  0.00111  0.00006  0.00119  1.0000
  H   H8        1.0  0.00320  0.00327  0.00600  1.0000
  H   H9        1.0  0.01478  0.00733  0.01268  1.0000
  H   H10       1.0  0.34367  0.15346  0.06915  1.0000
  H   H11       1.0  0.02349  0.01069  0.01596  1.0000
  H   H12       1.0  0.08279  0.11883  0.07784  1.0000
  O   O5        1.0  0.21578  0.06803  0.28976  1.0000
  O   O6        1.0  0.07381  0.23903  0.13811  1.0000
