data_image0
_chemical_formula_structural       Co4Li5O9
_chemical_formula_sum              "Co4 Li5 O9"
_cell_length_a       5.67004
_cell_length_b       6.11263
_cell_length_c       7.57492
_cell_angle_alpha    122.029
_cell_angle_beta     98.0293
_cell_angle_gamma    135.424

_space_group_name_H-M_alt    "P 1"
_space_group_IT_number       1

loop_
  _space_group_symop_operation_xyz
  'x, y, z'

loop_
  _atom_site_type_symbol
  _atom_site_label
  _atom_site_symmetry_multiplicity
  _atom_site_fract_x
  _atom_site_fract_y
  _atom_site_fract_z
  _atom_site_occupancy
  Co  Co1       1.0  0.00856  0.42977  0.02542  1.0000
  Co  Co2       1.0  0.03166  0.02308  0.52232  1.0000
  Co  Co3       1.0  0.01606  0.59972  0.53194  1.0000
  Co  Co4       1.0  0.57526  0.05726  0.60418  1.0000
  Li  Li1       1.0  0.04091  0.14788  0.00971  1.0000
  Li  Li2       1.0  0.35639  0.03090  0.09523  1.0000
  Li  Li3       1.0  0.50865  0.34264  0.11021  1.0000
  Li  Li4       1.0  0.51039  0.56518  0.43209  1.0000
  Li  Li5       1.0  0.27286  0.51935  0.20742  1.0000
  O   O1        1.0  0.89548  0.49904  0.14173  1.0000
  O   O2        1.0  0.09025  0.92854  0.31023  1.0000
  O   O3        1.0  0.82128  0.01462  0.39397  1.0000
  O   O4        1.0  0.23066  0.85126  0.79964  1.0000
  O   O5        1.0  0.88510  0.02982  0.78145  1.0000
  O   O6        1.0  0.64028  0.82792  0.50215  1.0000
  O   O7        1.0  0.92692  0.45466  0.76754  1.0000
  O   O8        1.0  0.17352  0.12489  0.10569  1.0000
  O   O9        1.0  0.12692  0.04039  0.03848  1.0000
