data_image0
_chemical_formula_structural       Ca4O14H3OHOH6OH2OHCaHO3
_chemical_formula_sum              "Ca5 O21 H14"
_cell_length_a       5.44331
_cell_length_b       7.16983
_cell_length_c       5.79437
_cell_angle_alpha    61.8253
_cell_angle_beta     61.2223
_cell_angle_gamma    58.1525

_space_group_name_H-M_alt    "P 1"
_space_group_IT_number       1

loop_
  _space_group_symop_operation_xyz
  'x, y, z'

loop_
  _atom_site_type_symbol
  _atom_site_label
  _atom_site_symmetry_multiplicity
  _atom_site_fract_x
  _atom_site_fract_y
  _atom_site_fract_z
  _atom_site_occupancy
  Ca  Ca1       1.0  0.26819  0.29889  0.15544  1.0000
  Ca  Ca2       1.0  0.40015  0.41193  0.32670  1.0000
  Ca  Ca3       1.0  0.26479  0.34184  0.38382  1.0000
  Ca  Ca4       1.0  0.28310  0.32019  0.43019  1.0000
  O   O1        1.0  0.15788  0.29380  0.28440  1.0000
  O   O2        1.0  0.26147  0.33431  0.26181  1.0000
  O   O3        1.0  0.19946  0.26524  0.22125  1.0000
  O   O4        1.0  0.29118  0.36376  0.28464  1.0000
  O   O5        1.0  0.24797  0.29565  0.17829  1.0000
  O   O6        1.0  0.33703  0.40016  0.23212  1.0000
  O   O7        1.0  0.32511  0.35077  0.24107  1.0000
  O   O8        1.0  0.40889  0.40952  0.33378  1.0000
  O   O9        1.0  0.36843  0.43567  0.51118  1.0000
  O   O10       1.0  0.47948  0.51028  0.63225  1.0000
  O   O11       1.0  0.36644  0.40718  0.43817  1.0000
  O   O12       1.0  0.33249  0.31301  0.50298  1.0000
  O   O13       1.0  0.08176  0.13616  0.21018  1.0000
  O   O14       1.0  0.08809  0.12995  0.16032  1.0000
  H   H1        1.0  0.03473  0.03122  0.02357  1.0000
  H   H2        1.0  0.04351  0.03853  0.02826  1.0000
  H   H3        1.0  0.01060  0.01108  0.00558  1.0000
  O   O15       1.0  0.04085  0.04693  0.02197  1.0000
  H   H4        1.0  0.01265  0.02357  0.00772  1.0000
  O   O16       1.0  0.03394  0.06072  0.01440  1.0000
  H   H5        1.0  0.00654  0.01563  0.01069  1.0000
  H   H6        1.0  0.02869  0.05311  0.03021  1.0000
  H   H7        1.0  0.01101  0.02255  0.02146  1.0000
  H   H8        1.0  0.02723  0.03673  0.03618  1.0000
  H   H9        1.0  0.01237  0.02266  0.02671  1.0000
  H   H10       1.0  0.03252  0.05193  0.03833  1.0000
  O   O17       1.0  0.02966  0.02487  0.02632  1.0000
  H   H11       1.0  0.04165  0.04931  0.04812  1.0000
  H   H12       1.0  0.02814  0.03444  0.02650  1.0000
  O   O18       1.0  0.06033  0.05996  0.04496  1.0000
  H   H13       1.0  0.01940  0.03153  0.02880  1.0000
  Ca  Ca5       1.0  0.02157  0.05580  0.04048  1.0000
  H   H14       1.0  0.01672  0.03317  0.03602  1.0000
  O   O19       1.0  0.03632  0.07196  0.05619  1.0000
  O   O20       1.0  0.06623  0.02788  0.03793  1.0000
  O   O21       1.0  0.09355  0.03727  0.09297  1.0000
