data_image0
_chemical_formula_structural       Ba2O9H2BaOHO2HO2H2OHO2H2O2H2OHBaHO3
_chemical_formula_sum              "Ba4 O23 H13"
_cell_length_a       5.05741
_cell_length_b       6.23728
_cell_length_c       7.01182
_cell_angle_alpha    65.0288
_cell_angle_beta     73.1311
_cell_angle_gamma    70.0632

_space_group_name_H-M_alt    "P 1"
_space_group_IT_number       1

loop_
  _space_group_symop_operation_xyz
  'x, y, z'

loop_
  _atom_site_type_symbol
  _atom_site_label
  _atom_site_symmetry_multiplicity
  _atom_site_fract_x
  _atom_site_fract_y
  _atom_site_fract_z
  _atom_site_occupancy
  Ba  Ba1       1.0  0.27656  0.31388  0.17993  1.0000
  Ba  Ba2       1.0  0.38205  0.41844  0.41495  1.0000
  O   O1        1.0  0.33259  0.37805  0.33802  1.0000
  O   O2        1.0  0.37501  0.40701  0.50242  1.0000
  O   O3        1.0  0.35999  0.47347  0.35818  1.0000
  O   O4        1.0  0.43949  0.50507  0.37359  1.0000
  O   O5        1.0  0.37679  0.39860  0.46140  1.0000
  O   O6        1.0  0.42564  0.42198  0.49874  1.0000
  O   O7        1.0  0.13330  0.19729  0.16445  1.0000
  O   O8        1.0  0.10885  0.10664  0.09104  1.0000
  O   O9        1.0  0.04595  0.03839  0.02804  1.0000
  H   H1        1.0  0.02635  0.02915  0.01503  1.0000
  H   H2        1.0  0.01177  0.02207  0.01333  1.0000
  Ba  Ba3       1.0  0.03532  0.08280  0.03704  1.0000
  O   O10       1.0  0.01930  0.03591  0.01178  1.0000
  H   H3        1.0  0.04155  0.06359  0.03996  1.0000
  O   O11       1.0  0.01682  0.03654  0.04676  1.0000
  O   O12       1.0  0.04996  0.09823  0.07983  1.0000
  H   H4        1.0  0.03285  0.06148  0.06612  1.0000
  O   O13       1.0  0.04310  0.06173  0.07028  1.0000
  O   O14       1.0  0.02621  0.05403  0.05462  1.0000
  H   H5        1.0  0.05602  0.08455  0.06872  1.0000
  H   H6        1.0  0.03641  0.05412  0.04061  1.0000
  O   O15       1.0  0.04492  0.08129  0.06555  1.0000
  H   H7        1.0  0.01710  0.02018  0.02501  1.0000
  O   O16       1.0  0.04569  0.03458  0.04479  1.0000
  O   O17       1.0  0.02162  0.01920  0.03608  1.0000
  H   H8        1.0  0.03599  0.04897  0.04893  1.0000
  H   H9        1.0  0.02026  0.02517  0.03512  1.0000
  O   O18       1.0  0.06594  0.06917  0.07320  1.0000
  O   O19       1.0  0.04515  0.03166  0.03475  1.0000
  H   H10       1.0  0.05766  0.05073  0.06077  1.0000
  H   H11       1.0  0.03516  0.03880  0.03007  1.0000
  O   O20       1.0  0.06475  0.06095  0.04063  1.0000
  H   H12       1.0  0.02152  0.02737  0.01706  1.0000
  Ba  Ba4       1.0  0.02594  0.04703  0.02368  1.0000
  H   H13       1.0  0.01668  0.03151  0.02437  1.0000
  O   O21       1.0  0.03340  0.06135  0.03627  1.0000
  O   O22       1.0  0.08083  0.02447  0.00973  1.0000
  O   O23       1.0  0.11390  0.03003  0.03014  1.0000
