data_image0
_chemical_formula_structural       Ag4O15H4OH2OH2O2H2O2AgO4
_chemical_formula_sum              "Ag5 O25 H10"
_cell_length_a       6.59495
_cell_length_b       9.04933
_cell_length_c       5.31232
_cell_angle_alpha    70.597
_cell_angle_beta     65.5048
_cell_angle_gamma    56.8419

_space_group_name_H-M_alt    "P 1"
_space_group_IT_number       1

loop_
  _space_group_symop_operation_xyz
  'x, y, z'

loop_
  _atom_site_type_symbol
  _atom_site_label
  _atom_site_symmetry_multiplicity
  _atom_site_fract_x
  _atom_site_fract_y
  _atom_site_fract_z
  _atom_site_occupancy
  Ag  Ag1       1.0  0.33206  0.41341  0.18328  1.0000
  Ag  Ag2       1.0  0.41492  0.45392  0.32832  1.0000
  Ag  Ag3       1.0  0.28468  0.41090  0.47226  1.0000
  Ag  Ag4       1.0  0.32302  0.34988  0.51187  1.0000
  O   O1        1.0  0.18611  0.30873  0.22832  1.0000
  O   O2        1.0  0.30590  0.34254  0.21287  1.0000
  O   O3        1.0  0.22370  0.26875  0.24604  1.0000
  O   O4        1.0  0.33243  0.38439  0.27651  1.0000
  O   O5        1.0  0.28451  0.31844  0.19392  1.0000
  O   O6        1.0  0.36539  0.37942  0.24424  1.0000
  O   O7        1.0  0.37545  0.36322  0.25252  1.0000
  O   O8        1.0  0.42505  0.44861  0.37271  1.0000
  O   O9        1.0  0.38194  0.45528  0.56147  1.0000
  O   O10       1.0  0.50060  0.54540  0.68294  1.0000
  O   O11       1.0  0.41413  0.43183  0.48628  1.0000
  O   O12       1.0  0.42686  0.41732  0.59281  1.0000
  O   O13       1.0  0.12045  0.19355  0.23013  1.0000
  O   O14       1.0  0.12776  0.19115  0.18666  1.0000
  O   O15       1.0  0.04560  0.04309  0.03116  1.0000
  H   H1        1.0  0.04667  0.04152  0.03097  1.0000
  H   H2        1.0  0.01478  0.01343  0.00720  1.0000
  H   H3        1.0  0.04484  0.04492  0.02279  1.0000
  H   H4        1.0  0.01281  0.01885  0.00555  1.0000
  O   O16       1.0  0.03904  0.06660  0.01858  1.0000
  H   H5        1.0  0.00643  0.01300  0.01168  1.0000
  H   H6        1.0  0.02857  0.05036  0.03224  1.0000
  O   O17       1.0  0.01287  0.01839  0.02657  1.0000
  H   H7        1.0  0.03135  0.03454  0.03951  1.0000
  H   H8        1.0  0.01747  0.02337  0.03381  1.0000
  O   O18       1.0  0.04906  0.07009  0.06590  1.0000
  O   O19       1.0  0.03268  0.03300  0.02977  1.0000
  H   H9        1.0  0.04959  0.05382  0.05883  1.0000
  H   H10       1.0  0.03359  0.05852  0.03460  1.0000
  O   O20       1.0  0.05483  0.07466  0.04275  1.0000
  O   O21       1.0  0.03095  0.04077  0.04586  1.0000
  Ag  Ag5       1.0  0.02992  0.07733  0.05028  1.0000
  O   O22       1.0  0.01895  0.04378  0.03326  1.0000
  O   O23       1.0  0.04480  0.07588  0.05781  1.0000
  O   O24       1.0  0.07882  0.03074  0.05123  1.0000
  O   O25       1.0  0.09388  0.03989  0.07587  1.0000
