data_image0
_chemical_formula_structural       B2O9H2BOHOH4OH7O2HO4H2O2
_chemical_formula_sum              "B3 O20 H17"
_cell_length_a       4.7353
_cell_length_b       6.01791
_cell_length_c       6.80378
_cell_angle_alpha    60.5423
_cell_angle_beta     63.8933
_cell_angle_gamma    61.5471

_space_group_name_H-M_alt    "P 1"
_space_group_IT_number       1

loop_
  _space_group_symop_operation_xyz
  'x, y, z'

loop_
  _atom_site_type_symbol
  _atom_site_label
  _atom_site_symmetry_multiplicity
  _atom_site_fract_x
  _atom_site_fract_y
  _atom_site_fract_z
  _atom_site_occupancy
  B   B1        1.0  0.24216  0.31050  0.15350  1.0000
  B   B2        1.0  0.35844  0.41171  0.35408  1.0000
  O   O1        1.0  0.28125  0.38990  0.31440  1.0000
  O   O2        1.0  0.29210  0.37293  0.40641  1.0000
  O   O3        1.0  0.27666  0.43863  0.37829  1.0000
  O   O4        1.0  0.37332  0.45534  0.36266  1.0000
  O   O5        1.0  0.28858  0.36645  0.38063  1.0000
  O   O6        1.0  0.30460  0.32427  0.40217  1.0000
  O   O7        1.0  0.08800  0.17482  0.14221  1.0000
  O   O8        1.0  0.07852  0.07703  0.07161  1.0000
  O   O9        1.0  0.03393  0.03408  0.02551  1.0000
  H   H1        1.0  0.01903  0.02535  0.01517  1.0000
  H   H2        1.0  0.00583  0.01430  0.01033  1.0000
  B   B3        1.0  0.01972  0.05026  0.02407  1.0000
  O   O10       1.0  0.01269  0.01906  0.00975  1.0000
  H   H3        1.0  0.02467  0.03809  0.02931  1.0000
  O   O11       1.0  0.01142  0.01737  0.02588  1.0000
  H   H4        1.0  0.03156  0.04725  0.04287  1.0000
  H   H5        1.0  0.02573  0.02480  0.02842  1.0000
  H   H6        1.0  0.02742  0.03753  0.03603  1.0000
  H   H7        1.0  0.01532  0.02540  0.02515  1.0000
  O   O12       1.0  0.03348  0.04900  0.03653  1.0000
  H   H8        1.0  0.01713  0.02906  0.01365  1.0000
  H   H9        1.0  0.02669  0.04722  0.02783  1.0000
  H   H10       1.0  0.00794  0.01142  0.01375  1.0000
  H   H11       1.0  0.02697  0.02590  0.02694  1.0000
  H   H12       1.0  0.01184  0.01229  0.01553  1.0000
  H   H13       1.0  0.02449  0.03416  0.02803  1.0000
  H   H14       1.0  0.01567  0.02054  0.03105  1.0000
  O   O13       1.0  0.03886  0.06550  0.05576  1.0000
  O   O14       1.0  0.03986  0.02661  0.03158  1.0000
  H   H15       1.0  0.05062  0.05242  0.07198  1.0000
  O   O15       1.0  0.03966  0.04005  0.03869  1.0000
  O   O16       1.0  0.08141  0.07458  0.06108  1.0000
  O   O17       1.0  0.02576  0.03216  0.03394  1.0000
  O   O18       1.0  0.02387  0.05798  0.04673  1.0000
  H   H16       1.0  0.01631  0.03173  0.03392  1.0000
  H   H17       1.0  0.03108  0.05570  0.04758  1.0000
  O   O19       1.0  0.07513  0.02533  0.01467  1.0000
  O   O20       1.0  0.10349  0.03055  0.04450  1.0000
